Version 4
SHEET 1 1620 680
WIRE 976 -176 976 -192
WIRE 672 -112 672 -128
WIRE 976 -80 976 -96
WIRE 1104 -80 976 -80
WIRE 976 -64 976 -80
WIRE 672 -16 672 -32
WIRE 800 -16 672 -16
WIRE 912 -16 880 -16
WIRE 672 0 672 -16
WIRE 480 48 464 48
WIRE 496 48 480 48
WIRE 608 48 576 48
WIRE 976 64 976 32
WIRE 672 128 672 96
WIRE 672 288 672 272
WIRE 672 384 672 368
WIRE 976 384 672 384
WIRE 672 400 672 384
WIRE 480 448 480 48
WIRE 496 448 480 448
WIRE 608 448 576 448
WIRE 672 528 672 496
FLAG 512 -320 0
FLAG 624 -320 0
FLAG 464 48 Signal
IOPIN 464 48 In
FLAG 512 -400 High
IOPIN 512 -400 Out
FLAG 624 -400 Signal
IOPIN 624 -400 Out
FLAG 1104 -80 Output
FLAG 672 -128 Low
IOPIN 672 -128 In
FLAG 672 128 0
FLAG 976 -192 High
IOPIN 976 -192 In
FLAG 976 64 0
FLAG 976 384 negOutput
FLAG 672 272 High
IOPIN 672 272 In
FLAG 672 528 0
FLAG 416 -320 0
FLAG 416 -400 Low
IOPIN 416 -400 Out
SYMBOL voltage 512 -416 R0
SYMATTR InstName High
SYMATTR Value 5V
SYMBOL voltage 624 -416 R0
WINDOW 123 0 0 Left 0
WINDOW 39 0 0 Left 0
SYMATTR InstName Signal
SYMATTR Value PULSE(0 3.3 0 0 0 1 2)
SYMBOL res 592 32 R90
WINDOW 0 0 56 VBottom 2
WINDOW 3 32 56 VTop 2
SYMATTR InstName R3
SYMATTR Value 1K
SYMBOL npn 608 0 R0
SYMATTR InstName Q2
SYMATTR Value 2N2222
SYMBOL res 656 -128 R0
SYMATTR InstName R4
SYMATTR Value 10K
SYMBOL res 896 -32 R90
WINDOW 0 0 56 VBottom 2
WINDOW 3 32 56 VTop 2
SYMATTR InstName R5
SYMATTR Value 1K
SYMBOL npn 912 -64 R0
SYMATTR InstName Q3
SYMATTR Value 2N2222
SYMBOL res 960 -192 R0
SYMATTR InstName R6
SYMATTR Value 10K
SYMBOL res 592 432 R90
WINDOW 0 0 56 VBottom 2
WINDOW 3 32 56 VTop 2
SYMATTR InstName R1
SYMATTR Value 1K
SYMBOL npn 608 400 R0
SYMATTR InstName Q1
SYMATTR Value 2N2222
SYMBOL res 656 272 R0
SYMATTR InstName R2
SYMATTR Value 10K
SYMBOL voltage 416 -416 R0
SYMATTR InstName Low
SYMATTR Value 5V
TEXT 760 -440 Left 2 !.tran 10s
TEXT 760 -472 Left 2 ;LtSpice directive for setting the simulation time at 10 seconds:
TEXT 480 584 Left 2 ;A simple circuit consisting of a logic level converter and a NOT gate.\nUsed for controlling a pair of relays that behave simmilar to an H bridge.
